Version 4
SHEET 1 1180 1892
WIRE 384 -128 176 -128
WIRE 176 -80 176 -128
WIRE 384 16 384 -128
WIRE 176 48 176 0
WIRE -48 128 -48 96
WIRE -48 128 -96 128
WIRE -16 128 -48 128
WIRE 96 128 64 128
WIRE 128 128 96 128
WIRE -96 224 -96 208
WIRE 96 224 96 208
WIRE 96 224 -96 224
WIRE 176 224 176 144
WIRE 176 224 96 224
WIRE 384 224 384 96
WIRE 384 224 176 224
WIRE 176 256 176 224
FLAG 176 256 0
FLAG -48 96 OnOff
SYMBOL res 160 -96 R0
WINDOW 3 37 69 Left 2
SYMATTR InstName R1
SYMATTR Value 370
SYMBOL nmos 128 48 R0
SYMATTR InstName M1
SYMATTR Value irlml2502
SYMATTR Prefix X
SYMATTR SpiceModel irlml2502
SYMBOL voltage 384 0 R0
WINDOW 123 0 0 Left 0
WINDOW 39 24 124 Left 2
SYMATTR SpiceLine Rser=0
SYMATTR InstName V1
SYMATTR Value 3.7
SYMBOL voltage -96 112 R0
WINDOW 123 0 0 Left 0
WINDOW 39 -164 138 Left 2
WINDOW 0 -74 18 Left 2
WINDOW 3 -353 103 Left 2
SYMATTR SpiceLine Rser=0
SYMATTR InstName V2
SYMATTR Value PULSE(0 3.3 1u 1u 1u 0.5 1 5)
SYMBOL res 80 112 R90
WINDOW 0 0 56 VBottom 2
WINDOW 3 32 56 VTop 2
SYMATTR InstName R2
SYMATTR Value 30k
SYMBOL res 112 224 R180
WINDOW 0 36 76 Left 2
WINDOW 3 36 40 Left 2
SYMATTR InstName R3
SYMATTR Value 30k
TEXT 344 288 Left 2 !.lib irlml2502.spi
TEXT -130 308 Left 2 !.tran 5
